*SPEF "ieee 1481-1999"
*DESIGN "user_proj_example"
*DATE "11:11:11 Fri 11 11, 1111"
*VENDOR "OpenRCX"
*PROGRAM "Parallel Extraction"
*VERSION "1.0"
*DESIGN_FLOW "NAME_SCOPE LOCAL" "PIN_CAP NONE"
*DIVIDER /
*DELIMITER :
*BUS_DELIMITER []
*T_UNIT 1 NS
*C_UNIT 1 PF
*R_UNIT 1 OHM
*L_UNIT 1 HENRY

*NAME_MAP
*1 io_in[0]
*2 io_in[10]
*3 io_in[11]
*4 io_in[12]
*5 io_in[13]
*6 io_in[14]
*7 io_in[15]
*8 io_in[16]
*9 io_in[17]
*10 io_in[18]
*11 io_in[19]
*12 io_in[1]
*13 io_in[20]
*14 io_in[21]
*15 io_in[22]
*16 io_in[23]
*17 io_in[24]
*18 io_in[25]
*19 io_in[26]
*20 io_in[27]
*21 io_in[28]
*22 io_in[29]
*23 io_in[2]
*24 io_in[30]
*25 io_in[31]
*26 io_in[32]
*27 io_in[33]
*28 io_in[34]
*29 io_in[35]
*30 io_in[36]
*31 io_in[37]
*32 io_in[3]
*33 io_in[4]
*34 io_in[5]
*35 io_in[6]
*36 io_in[7]
*37 io_in[8]
*38 io_in[9]
*39 net4
*40 net14
*41 net15
*42 net16
*43 net17
*44 net18
*45 net19
*46 net20
*47 net21
*48 net22
*49 net23
*50 net5
*51 net24
*52 net25
*53 net26
*54 net27
*55 net28
*56 net29
*57 net30
*58 net31
*59 net32
*60 net33
*61 net6
*62 net34
*63 net35
*64 net36
*65 net37
*66 net38
*67 net39
*68 net40
*69 net41
*70 net7
*71 net8
*72 net9
*73 net10
*74 net11
*75 net12
*76 net13
*77 net42
*78 net52
*79 net53
*80 net54
*81 net55
*82 net56
*83 net57
*84 net58
*85 net59
*86 net60
*87 net61
*88 net43
*89 net62
*90 net63
*91 net64
*92 net65
*93 net66
*94 net67
*95 net68
*96 net69
*97 net70
*98 net71
*99 net44
*100 net72
*101 net73
*102 net74
*103 net75
*104 net76
*105 net77
*106 net78
*107 io_out[37]
*108 net45
*109 net46
*110 net47
*111 net48
*112 net49
*113 net50
*114 net51
*115 net79
*116 net80
*117 net81
*118 la_data_in[0]
*119 la_data_in[100]
*120 la_data_in[101]
*121 la_data_in[102]
*122 la_data_in[103]
*123 la_data_in[104]
*124 la_data_in[105]
*125 la_data_in[106]
*126 la_data_in[107]
*127 la_data_in[108]
*128 la_data_in[109]
*129 la_data_in[10]
*130 la_data_in[110]
*131 la_data_in[111]
*132 la_data_in[112]
*133 la_data_in[113]
*134 la_data_in[114]
*135 la_data_in[115]
*136 la_data_in[116]
*137 la_data_in[117]
*138 la_data_in[118]
*139 la_data_in[119]
*140 la_data_in[11]
*141 la_data_in[120]
*142 la_data_in[121]
*143 la_data_in[122]
*144 la_data_in[123]
*145 la_data_in[124]
*146 la_data_in[125]
*147 la_data_in[126]
*148 la_data_in[127]
*149 la_data_in[12]
*150 la_data_in[13]
*151 la_data_in[14]
*152 la_data_in[15]
*153 la_data_in[16]
*154 la_data_in[17]
*155 la_data_in[18]
*156 la_data_in[19]
*157 la_data_in[1]
*158 la_data_in[20]
*159 la_data_in[21]
*160 la_data_in[22]
*161 la_data_in[23]
*162 la_data_in[24]
*163 la_data_in[25]
*164 la_data_in[26]
*165 la_data_in[27]
*166 la_data_in[28]
*167 la_data_in[29]
*168 la_data_in[2]
*169 la_data_in[30]
*170 la_data_in[31]
*171 la_data_in[32]
*172 la_data_in[33]
*173 la_data_in[34]
*174 la_data_in[35]
*175 la_data_in[36]
*176 la_data_in[37]
*177 la_data_in[38]
*178 la_data_in[39]
*179 la_data_in[3]
*180 la_data_in[40]
*181 la_data_in[41]
*182 la_data_in[42]
*183 la_data_in[43]
*184 la_data_in[44]
*185 la_data_in[45]
*186 la_data_in[46]
*187 la_data_in[47]
*188 la_data_in[48]
*189 la_data_in[49]
*190 la_data_in[4]
*191 la_data_in[50]
*192 la_data_in[51]
*193 la_data_in[52]
*194 la_data_in[53]
*195 la_data_in[54]
*196 la_data_in[55]
*197 la_data_in[56]
*198 la_data_in[57]
*199 la_data_in[58]
*200 la_data_in[59]
*201 la_data_in[5]
*202 la_data_in[60]
*203 la_data_in[61]
*204 la_data_in[62]
*205 la_data_in[63]
*206 la_data_in[64]
*207 la_data_in[65]
*208 la_data_in[66]
*209 la_data_in[67]
*210 la_data_in[68]
*211 la_data_in[69]
*212 la_data_in[6]
*213 la_data_in[70]
*214 la_data_in[71]
*215 la_data_in[72]
*216 la_data_in[73]
*217 la_data_in[74]
*218 la_data_in[75]
*219 la_data_in[76]
*220 la_data_in[77]
*221 la_data_in[78]
*222 la_data_in[79]
*223 la_data_in[7]
*224 la_data_in[80]
*225 la_data_in[81]
*226 la_data_in[82]
*227 la_data_in[83]
*228 la_data_in[84]
*229 la_data_in[85]
*230 la_data_in[86]
*231 la_data_in[87]
*232 la_data_in[88]
*233 la_data_in[89]
*234 la_data_in[8]
*235 la_data_in[90]
*236 la_data_in[91]
*237 la_data_in[92]
*238 la_data_in[93]
*239 la_data_in[94]
*240 la_data_in[95]
*241 la_data_in[96]
*242 la_data_in[97]
*243 la_data_in[98]
*244 la_data_in[99]
*245 la_data_in[9]
*246 net82
*247 net182
*248 net183
*249 net184
*250 net185
*251 net186
*252 net187
*253 net188
*254 net189
*255 net190
*256 net191
*257 net92
*258 net192
*259 net193
*260 net194
*261 net195
*262 net196
*263 net197
*264 net198
*265 net199
*266 net200
*267 net201
*268 net93
*269 net202
*270 net203
*271 net204
*272 net205
*273 net206
*274 net207
*275 net208
*276 net209
*277 net94
*278 net95
*279 net96
*280 net97
*281 net98
*282 net99
*283 net100
*284 net101
*285 net83
*286 net102
*287 net103
*288 net104
*289 net105
*290 net106
*291 net107
*292 net108
*293 net109
*294 net110
*295 net111
*296 net84
*297 net112
*298 net113
*299 net114
*300 net115
*301 net116
*302 net117
*303 net118
*304 net119
*305 net120
*306 net121
*307 net85
*308 net122
*309 net123
*310 net124
*311 net125
*312 net126
*313 net127
*314 net128
*315 net129
*316 net130
*317 net131
*318 net86
*319 net132
*320 net133
*321 net134
*322 net135
*323 net136
*324 net137
*325 net138
*326 net139
*327 net140
*328 net141
*329 net87
*330 net142
*331 net143
*332 net144
*333 net145
*334 net146
*335 net147
*336 net148
*337 net149
*338 net150
*339 net151
*340 net88
*341 net152
*342 net153
*343 net154
*344 net155
*345 net156
*346 net157
*347 net158
*348 net159
*349 net160
*350 net161
*351 net89
*352 net162
*353 net163
*354 net164
*355 net165
*356 net166
*357 net167
*358 net168
*359 net169
*360 net170
*361 net171
*362 net90
*363 net172
*364 net173
*365 net174
*366 net175
*367 net176
*368 net177
*369 net178
*370 net179
*371 net180
*372 net181
*373 net91
*374 la_oenb[0]
*375 la_oenb[100]
*376 la_oenb[101]
*377 la_oenb[102]
*378 la_oenb[103]
*379 la_oenb[104]
*380 la_oenb[105]
*381 la_oenb[106]
*382 la_oenb[107]
*383 la_oenb[108]
*384 la_oenb[109]
*385 la_oenb[10]
*386 la_oenb[110]
*387 la_oenb[111]
*388 la_oenb[112]
*389 la_oenb[113]
*390 la_oenb[114]
*391 la_oenb[115]
*392 la_oenb[116]
*393 la_oenb[117]
*394 la_oenb[118]
*395 la_oenb[119]
*396 la_oenb[11]
*397 la_oenb[120]
*398 la_oenb[121]
*399 la_oenb[122]
*400 la_oenb[123]
*401 la_oenb[124]
*402 la_oenb[125]
*403 la_oenb[126]
*404 la_oenb[127]
*405 la_oenb[12]
*406 la_oenb[13]
*407 la_oenb[14]
*408 la_oenb[15]
*409 la_oenb[16]
*410 la_oenb[17]
*411 la_oenb[18]
*412 la_oenb[19]
*413 la_oenb[1]
*414 la_oenb[20]
*415 la_oenb[21]
*416 la_oenb[22]
*417 la_oenb[23]
*418 la_oenb[24]
*419 la_oenb[25]
*420 la_oenb[26]
*421 la_oenb[27]
*422 la_oenb[28]
*423 la_oenb[29]
*424 la_oenb[2]
*425 la_oenb[30]
*426 la_oenb[31]
*427 la_oenb[32]
*428 la_oenb[33]
*429 la_oenb[34]
*430 la_oenb[35]
*431 la_oenb[36]
*432 la_oenb[37]
*433 la_oenb[38]
*434 la_oenb[39]
*435 la_oenb[3]
*436 la_oenb[40]
*437 la_oenb[41]
*438 la_oenb[42]
*439 la_oenb[43]
*440 la_oenb[44]
*441 la_oenb[45]
*442 la_oenb[46]
*443 la_oenb[47]
*444 la_oenb[48]
*445 la_oenb[49]
*446 la_oenb[4]
*447 la_oenb[50]
*448 la_oenb[51]
*449 la_oenb[52]
*450 la_oenb[53]
*451 la_oenb[54]
*452 la_oenb[55]
*453 la_oenb[56]
*454 la_oenb[57]
*455 la_oenb[58]
*456 la_oenb[59]
*457 la_oenb[5]
*458 la_oenb[60]
*459 la_oenb[61]
*460 la_oenb[62]
*461 la_oenb[63]
*462 la_oenb[64]
*463 la_oenb[65]
*464 la_oenb[66]
*465 la_oenb[67]
*466 la_oenb[68]
*467 la_oenb[69]
*468 la_oenb[6]
*469 la_oenb[70]
*470 la_oenb[71]
*471 la_oenb[72]
*472 la_oenb[73]
*473 la_oenb[74]
*474 la_oenb[75]
*475 la_oenb[76]
*476 la_oenb[77]
*477 la_oenb[78]
*478 la_oenb[79]
*479 la_oenb[7]
*480 la_oenb[80]
*481 la_oenb[81]
*482 la_oenb[82]
*483 la_oenb[83]
*484 la_oenb[84]
*485 la_oenb[85]
*486 la_oenb[86]
*487 la_oenb[87]
*488 la_oenb[88]
*489 la_oenb[89]
*490 la_oenb[8]
*491 la_oenb[90]
*492 la_oenb[91]
*493 la_oenb[92]
*494 la_oenb[93]
*495 la_oenb[94]
*496 la_oenb[95]
*497 la_oenb[96]
*498 la_oenb[97]
*499 la_oenb[98]
*500 la_oenb[99]
*501 la_oenb[9]
*504 wb_clk_i
*505 wb_rst_i
*506 net210
*507 wbs_adr_i[0]
*508 wbs_adr_i[10]
*509 wbs_adr_i[11]
*510 wbs_adr_i[12]
*511 wbs_adr_i[13]
*512 wbs_adr_i[14]
*513 wbs_adr_i[15]
*514 wbs_adr_i[16]
*515 wbs_adr_i[17]
*516 wbs_adr_i[18]
*517 wbs_adr_i[19]
*518 wbs_adr_i[1]
*519 wbs_adr_i[20]
*520 wbs_adr_i[21]
*521 wbs_adr_i[22]
*522 wbs_adr_i[23]
*523 wbs_adr_i[24]
*524 wbs_adr_i[25]
*525 wbs_adr_i[26]
*526 wbs_adr_i[27]
*527 wbs_adr_i[28]
*528 wbs_adr_i[29]
*529 wbs_adr_i[2]
*530 wbs_adr_i[30]
*531 wbs_adr_i[31]
*532 wbs_adr_i[3]
*533 wbs_adr_i[4]
*534 wbs_adr_i[5]
*535 wbs_adr_i[6]
*536 wbs_adr_i[7]
*537 wbs_adr_i[8]
*538 wbs_adr_i[9]
*539 wbs_cyc_i
*540 wbs_dat_i[0]
*541 wbs_dat_i[10]
*542 wbs_dat_i[11]
*543 wbs_dat_i[12]
*544 wbs_dat_i[13]
*545 wbs_dat_i[14]
*546 wbs_dat_i[15]
*547 wbs_dat_i[16]
*548 wbs_dat_i[17]
*549 wbs_dat_i[18]
*550 wbs_dat_i[19]
*551 wbs_dat_i[1]
*552 wbs_dat_i[20]
*553 wbs_dat_i[21]
*554 wbs_dat_i[22]
*555 wbs_dat_i[23]
*556 wbs_dat_i[24]
*557 wbs_dat_i[25]
*558 wbs_dat_i[26]
*559 wbs_dat_i[27]
*560 wbs_dat_i[28]
*561 wbs_dat_i[29]
*562 wbs_dat_i[2]
*563 wbs_dat_i[30]
*564 wbs_dat_i[31]
*565 wbs_dat_i[3]
*566 wbs_dat_i[4]
*567 wbs_dat_i[5]
*568 wbs_dat_i[6]
*569 wbs_dat_i[7]
*570 wbs_dat_i[8]
*571 wbs_dat_i[9]
*572 net211
*573 net221
*574 net222
*575 net223
*576 net224
*577 net225
*578 net226
*579 net227
*580 net228
*581 net229
*582 net230
*583 net212
*584 net231
*585 net232
*586 net233
*587 net234
*588 net235
*589 net236
*590 net237
*591 net238
*592 net239
*593 net240
*594 net213
*595 net241
*596 net242
*597 net214
*598 net215
*599 net216
*600 net217
*601 net218
*602 net219
*603 net220
*604 wbs_sel_i[0]
*605 wbs_sel_i[1]
*606 wbs_sel_i[2]
*607 wbs_sel_i[3]
*608 wbs_stb_i
*609 wbs_we_i
*610 _000_
*611 _001_
*612 _002_
*613 _003_
*614 _004_
*615 _005_
*616 _006_
*617 _007_
*618 _008_
*619 _009_
*620 _010_
*621 _011_
*622 _012_
*623 _013_
*624 _014_
*625 clknet_0_wb_clk_i
*626 clknet_1_0__leaf_wb_clk_i
*627 clknet_1_1__leaf_wb_clk_i
*628 instance\.state\[0\]
*629 instance\.state\[1\]
*630 instance\.state\[2\]
*631 instance\.state\[3\]
*632 instance\.state\[4\]
*633 net1
*634 net2
*635 net3
*636 ANTENNA__015__D_N
*637 ANTENNA__017__B1_N
*638 ANTENNA__018__A_N
*639 ANTENNA__020__B1
*640 ANTENNA__021__B1_N
*641 ANTENNA__022__B
*642 ANTENNA__024__A
*643 ANTENNA__025__A
*644 ANTENNA__026__A
*645 ANTENNA__027__A
*646 ANTENNA__028__A
*647 ANTENNA__029__A
*648 ANTENNA_clkbuf_0_wb_clk_i_A
*649 ANTENNA_input1_A
*650 ANTENNA_input2_A
*651 ANTENNA_output3_A
*652 FILLER_0_1002
*653 FILLER_0_1009
*654 FILLER_0_1014
*655 FILLER_0_1021
*656 FILLER_0_1025
*657 FILLER_0_1029
*658 FILLER_0_1035
*659 FILLER_0_1037
*660 FILLER_0_1042
*661 FILLER_0_1049
*662 FILLER_0_1056
*663 FILLER_0_1065
*664 FILLER_0_1070
*665 FILLER_0_1077
*666 FILLER_0_1084
*667 FILLER_0_109
*668 FILLER_0_1093
*669 FILLER_0_1098
*670 FILLER_0_1105
*671 FILLER_0_1112
*672 FILLER_0_1121
*673 FILLER_0_1126
*674 FILLER_0_113
*675 FILLER_0_1133
*676 FILLER_0_1140
*677 FILLER_0_1149
*678 FILLER_0_1154
*679 FILLER_0_1161
*680 FILLER_0_1168
*681 FILLER_0_1177
*682 FILLER_0_1182
*683 FILLER_0_1189
*684 FILLER_0_1196
*685 FILLER_0_1205
*686 FILLER_0_1210
*687 FILLER_0_1214
*688 FILLER_0_1218
*689 FILLER_0_1227
*690 FILLER_0_1231
*691 FILLER_0_1233
*692 FILLER_0_1238
*693 FILLER_0_1245
*694 FILLER_0_125
*695 FILLER_0_1254
*696 FILLER_0_1261
*697 FILLER_0_1266
*698 FILLER_0_1273
*699 FILLER_0_1277
*700 FILLER_0_1281
*701 FILLER_0_1287
*702 FILLER_0_1289
*703 FILLER_0_1294
*704 FILLER_0_1301
*705 FILLER_0_1308
*706 FILLER_0_1317
*707 FILLER_0_1322
*708 FILLER_0_1329
*709 FILLER_0_1336
*710 FILLER_0_1345
*711 FILLER_0_1350
*712 FILLER_0_1357
*713 FILLER_0_1364
*714 FILLER_0_137
*715 FILLER_0_1373
*716 FILLER_0_1378
*717 FILLER_0_1385
*718 FILLER_0_1392
*719 FILLER_0_1401
*720 FILLER_0_1406
*721 FILLER_0_141
*722 FILLER_0_1413
*723 FILLER_0_1420
*724 FILLER_0_1429
*725 FILLER_0_1434
*726 FILLER_0_1441
*727 FILLER_0_1448
*728 FILLER_0_1457
*729 FILLER_0_1462
*730 FILLER_0_1466
*731 FILLER_0_1470
*732 FILLER_0_1479
*733 FILLER_0_1483
*734 FILLER_0_1485
*735 FILLER_0_1490
*736 FILLER_0_1497
*737 FILLER_0_15
*738 FILLER_0_1506
*739 FILLER_0_1513
*740 FILLER_0_1518
*741 FILLER_0_1525
*742 FILLER_0_1529
*743 FILLER_0_153
*744 FILLER_0_1533
*745 FILLER_0_1539
*746 FILLER_0_1541
*747 FILLER_0_1546
*748 FILLER_0_1553
*749 FILLER_0_1560
*750 FILLER_0_1569
*751 FILLER_0_1574
*752 FILLER_0_1581
*753 FILLER_0_1588
*754 FILLER_0_1597
*755 FILLER_0_1602
*756 FILLER_0_1609
*757 FILLER_0_1616
*758 FILLER_0_1625
*759 FILLER_0_1630
*760 FILLER_0_1637
*761 FILLER_0_1644
*762 FILLER_0_165
*763 FILLER_0_1653
*764 FILLER_0_1658
*765 FILLER_0_1665
*766 FILLER_0_1672
*767 FILLER_0_1681
*768 FILLER_0_1686
*769 FILLER_0_169
*770 FILLER_0_1693
*771 FILLER_0_1700
*772 FILLER_0_1709
*773 FILLER_0_1714
*774 FILLER_0_1726
*775 FILLER_0_1734
*776 FILLER_0_1737
*777 FILLER_0_1749
*778 FILLER_0_1761
*779 FILLER_0_1765
*780 FILLER_0_1777
*781 FILLER_0_1789
*782 FILLER_0_1793
*783 FILLER_0_1805
*784 FILLER_0_181
*785 FILLER_0_1817
*786 FILLER_0_1821
*787 FILLER_0_1833
*788 FILLER_0_1845
*789 FILLER_0_1849
*790 FILLER_0_1861
*791 FILLER_0_1873
*792 FILLER_0_1877
*793 FILLER_0_1889
*794 FILLER_0_1901
*795 FILLER_0_1905
*796 FILLER_0_1917
*797 FILLER_0_193
*798 FILLER_0_197
*799 FILLER_0_209
*800 FILLER_0_217
*801 FILLER_0_222
*802 FILLER_0_225
*803 FILLER_0_240
*804 FILLER_0_253
*805 FILLER_0_258
*806 FILLER_0_267
*807 FILLER_0_27
*808 FILLER_0_278
*809 FILLER_0_281
*810 FILLER_0_287
*811 FILLER_0_29
*812 FILLER_0_291
*813 FILLER_0_299
*814 FILLER_0_3
*815 FILLER_0_303
*816 FILLER_0_307
*817 FILLER_0_309
*818 FILLER_0_320
*819 FILLER_0_327
*820 FILLER_0_334
*821 FILLER_0_337
*822 FILLER_0_348
*823 FILLER_0_355
*824 FILLER_0_362
*825 FILLER_0_365
*826 FILLER_0_371
*827 FILLER_0_375
*828 FILLER_0_379
*829 FILLER_0_383
*830 FILLER_0_390
*831 FILLER_0_393
*832 FILLER_0_402
*833 FILLER_0_41
*834 FILLER_0_411
*835 FILLER_0_418
*836 FILLER_0_421
*837 FILLER_0_425
*838 FILLER_0_429
*839 FILLER_0_438
*840 FILLER_0_442
*841 FILLER_0_446
*842 FILLER_0_449
*843 FILLER_0_456
*844 FILLER_0_465
*845 FILLER_0_474
*846 FILLER_0_477
*847 FILLER_0_483
*848 FILLER_0_492
*849 FILLER_0_501
*850 FILLER_0_505
*851 FILLER_0_510
*852 FILLER_0_519
*853 FILLER_0_528
*854 FILLER_0_53
*855 FILLER_0_533
*856 FILLER_0_544
*857 FILLER_0_551
*858 FILLER_0_558
*859 FILLER_0_561
*860 FILLER_0_57
*861 FILLER_0_570
*862 FILLER_0_579
*863 FILLER_0_586
*864 FILLER_0_589
*865 FILLER_0_593
*866 FILLER_0_597
*867 FILLER_0_606
*868 FILLER_0_610
*869 FILLER_0_614
*870 FILLER_0_617
*871 FILLER_0_624
*872 FILLER_0_633
*873 FILLER_0_642
*874 FILLER_0_645
*875 FILLER_0_651
*876 FILLER_0_660
*877 FILLER_0_669
*878 FILLER_0_673
*879 FILLER_0_678
*880 FILLER_0_687
*881 FILLER_0_69
*882 FILLER_0_696
*883 FILLER_0_701
*884 FILLER_0_712
*885 FILLER_0_719
*886 FILLER_0_726
*887 FILLER_0_729
*888 FILLER_0_740
*889 FILLER_0_747
*890 FILLER_0_754
*891 FILLER_0_757
*892 FILLER_0_768
*893 FILLER_0_775
*894 FILLER_0_782
*895 FILLER_0_785
*896 FILLER_0_791
*897 FILLER_0_795
*898 FILLER_0_799
*899 FILLER_0_803
*900 FILLER_0_81
*901 FILLER_0_810
*902 FILLER_0_813
*903 FILLER_0_822
*904 FILLER_0_831
*905 FILLER_0_838
*906 FILLER_0_841
*907 FILLER_0_845
*908 FILLER_0_849
*909 FILLER_0_85
*910 FILLER_0_858
*911 FILLER_0_862
*912 FILLER_0_866
*913 FILLER_0_869
*914 FILLER_0_876
*915 FILLER_0_885
*916 FILLER_0_894
*917 FILLER_0_897
*918 FILLER_0_903
*919 FILLER_0_912
*920 FILLER_0_921
*921 FILLER_0_925
*922 FILLER_0_930
*923 FILLER_0_939
*924 FILLER_0_948
*925 FILLER_0_953
*926 FILLER_0_958
*927 FILLER_0_962
*928 FILLER_0_966
*929 FILLER_0_97
*930 FILLER_0_975
*931 FILLER_0_979
*932 FILLER_0_981
*933 FILLER_0_986
*934 FILLER_0_993
*935 FILLER_100_1005
*936 FILLER_100_1017
*937 FILLER_100_1029
*938 FILLER_100_1035
*939 FILLER_100_1037
*940 FILLER_100_1049
*941 FILLER_100_1061
*942 FILLER_100_1073
*943 FILLER_100_1085
*944 FILLER_100_109
*945 FILLER_100_1091
*946 FILLER_100_1093
*947 FILLER_100_1105
*948 FILLER_100_1117
*949 FILLER_100_1129
*950 FILLER_100_1141
*951 FILLER_100_1147
*952 FILLER_100_1149
*953 FILLER_100_1161
*954 FILLER_100_1173
*955 FILLER_100_1185
*956 FILLER_100_1197
*957 FILLER_100_1203
*958 FILLER_100_1205
*959 FILLER_100_121
*960 FILLER_100_1217
*961 FILLER_100_1229
*962 FILLER_100_1241
*963 FILLER_100_1253
*964 FILLER_100_1259
*965 FILLER_100_1261
*966 FILLER_100_1273
*967 FILLER_100_1285
*968 FILLER_100_1297
*969 FILLER_100_1309
*970 FILLER_100_1315
*971 FILLER_100_1317
*972 FILLER_100_1329
*973 FILLER_100_133
*974 FILLER_100_1341
*975 FILLER_100_1353
*976 FILLER_100_1365
*977 FILLER_100_1371
*978 FILLER_100_1373
*979 FILLER_100_1385
*980 FILLER_100_139
*981 FILLER_100_1397
*982 FILLER_100_1409
*983 FILLER_100_141
*984 FILLER_100_1421
*985 FILLER_100_1427
*986 FILLER_100_1429
*987 FILLER_100_1441
*988 FILLER_100_1453
*989 FILLER_100_1465
*990 FILLER_100_1477
*991 FILLER_100_1483
*992 FILLER_100_1485
*993 FILLER_100_1497
*994 FILLER_100_15
*995 FILLER_100_1509
*996 FILLER_100_1521
*997 FILLER_100_153
*998 FILLER_100_1533
*999 FILLER_100_1539
*1000 FILLER_100_1541
*1001 FILLER_100_1553
*1002 FILLER_100_1565
*1003 FILLER_100_1577
*1004 FILLER_100_1589
*1005 FILLER_100_1595
*1006 FILLER_100_1597
*1007 FILLER_100_1609
*1008 FILLER_100_1621
*1009 FILLER_100_1633
*1010 FILLER_100_1645
*1011 FILLER_100_165
*1012 FILLER_100_1651
*1013 FILLER_100_1653
*1014 FILLER_100_1665
*1015 FILLER_100_1677
*1016 FILLER_100_1689
*1017 FILLER_100_1701
*1018 FILLER_100_1707
*1019 FILLER_100_1709
*1020 FILLER_100_1721
*1021 FILLER_100_1733
*1022 FILLER_100_1745
*1023 FILLER_100_1757
*1024 FILLER_100_1763
*1025 FILLER_100_1765
*1026 FILLER_100_177
*1027 FILLER_100_1777
*1028 FILLER_100_1789
*1029 FILLER_100_1801
*1030 FILLER_100_1813
*1031 FILLER_100_1819
*1032 FILLER_100_1821
*1033 FILLER_100_1833
*1034 FILLER_100_1845
*1035 FILLER_100_1857
*1036 FILLER_100_1869
*1037 FILLER_100_1875
*1038 FILLER_100_1877
*1039 FILLER_100_1889
*1040 FILLER_100_189
*1041 FILLER_100_1901
*1042 FILLER_100_1913
*1043 FILLER_100_1925
*1044 FILLER_100_195
*1045 FILLER_100_197
*1046 FILLER_100_209
*1047 FILLER_100_221
*1048 FILLER_100_233
*1049 FILLER_100_245
*1050 FILLER_100_251
*1051 FILLER_100_253
*1052 FILLER_100_265
*1053 FILLER_100_27
*1054 FILLER_100_277
*1055 FILLER_100_289
*1056 FILLER_100_29
*1057 FILLER_100_3
*1058 FILLER_100_301
*1059 FILLER_100_307
*1060 FILLER_100_309
*1061 FILLER_100_321
*1062 FILLER_100_333
*1063 FILLER_100_345
*1064 FILLER_100_357
*1065 FILLER_100_363
*1066 FILLER_100_365
*1067 FILLER_100_377
*1068 FILLER_100_389
*1069 FILLER_100_401
*1070 FILLER_100_41
*1071 FILLER_100_413
*1072 FILLER_100_419
*1073 FILLER_100_421
*1074 FILLER_100_433
*1075 FILLER_100_445
*1076 FILLER_100_457
*1077 FILLER_100_469
*1078 FILLER_100_475
*1079 FILLER_100_477
*1080 FILLER_100_489
*1081 FILLER_100_501
*1082 FILLER_100_513
*1083 FILLER_100_525
*1084 FILLER_100_53
*1085 FILLER_100_531
*1086 FILLER_100_533
*1087 FILLER_100_545
*1088 FILLER_100_557
*1089 FILLER_100_569
*1090 FILLER_100_581
*1091 FILLER_100_587
*1092 FILLER_100_589
*1093 FILLER_100_601
*1094 FILLER_100_613
*1095 FILLER_100_625
*1096 FILLER_100_637
*1097 FILLER_100_643
*1098 FILLER_100_645
*1099 FILLER_100_65
*1100 FILLER_100_657
*1101 FILLER_100_669
*1102 FILLER_100_681
*1103 FILLER_100_693
*1104 FILLER_100_699
*1105 FILLER_100_701
*1106 FILLER_100_713
*1107 FILLER_100_725
*1108 FILLER_100_737
*1109 FILLER_100_749
*1110 FILLER_100_755
*1111 FILLER_100_757
*1112 FILLER_100_769
*1113 FILLER_100_77
*1114 FILLER_100_781
*1115 FILLER_100_793
*1116 FILLER_100_805
*1117 FILLER_100_811
*1118 FILLER_100_813
*1119 FILLER_100_825
*1120 FILLER_100_83
*1121 FILLER_100_837
*1122 FILLER_100_849
*1123 FILLER_100_85
*1124 FILLER_100_861
*1125 FILLER_100_867
*1126 FILLER_100_869
*1127 FILLER_100_881
*1128 FILLER_100_893
*1129 FILLER_100_905
*1130 FILLER_100_917
*1131 FILLER_100_923
*1132 FILLER_100_925
*1133 FILLER_100_937
*1134 FILLER_100_949
*1135 FILLER_100_961
*1136 FILLER_100_969
*1137 FILLER_100_97
*1138 FILLER_100_977
*1139 FILLER_100_981
*1140 FILLER_100_993
*1141 FILLER_101_1003
*1142 FILLER_101_1007
*1143 FILLER_101_1009
*1144 FILLER_101_1021
*1145 FILLER_101_1033
*1146 FILLER_101_1045
*1147 FILLER_101_105
*1148 FILLER_101_1057
*1149 FILLER_101_1063
*1150 FILLER_101_1065
*1151 FILLER_101_1077
*1152 FILLER_101_1089
*1153 FILLER_101_1101
*1154 FILLER_101_111
*1155 FILLER_101_1113
*1156 FILLER_101_1119
*1157 FILLER_101_1121
*1158 FILLER_101_113
*1159 FILLER_101_1133
*1160 FILLER_101_1145
*1161 FILLER_101_1157
*1162 FILLER_101_1169
*1163 FILLER_101_1175
*1164 FILLER_101_1177
*1165 FILLER_101_1189
*1166 FILLER_101_1201
*1167 FILLER_101_1213
*1168 FILLER_101_1225
*1169 FILLER_101_1231
*1170 FILLER_101_1233
*1171 FILLER_101_1245
*1172 FILLER_101_125
*1173 FILLER_101_1257
*1174 FILLER_101_1269
*1175 FILLER_101_1281
*1176 FILLER_101_1287
*1177 FILLER_101_1289
*1178 FILLER_101_1301
*1179 FILLER_101_1313
*1180 FILLER_101_1325
*1181 FILLER_101_1337
*1182 FILLER_101_1343
*1183 FILLER_101_1345
*1184 FILLER_101_1357
*1185 FILLER_101_1369
*1186 FILLER_101_137
*1187 FILLER_101_1381
*1188 FILLER_101_1393
*1189 FILLER_101_1399
*1190 FILLER_101_1401
*1191 FILLER_101_1413
*1192 FILLER_101_1425
*1193 FILLER_101_1437
*1194 FILLER_101_1449
*1195 FILLER_101_1455
*1196 FILLER_101_1457
*1197 FILLER_101_1469
*1198 FILLER_101_1481
*1199 FILLER_101_149
*1200 FILLER_101_1493
*1201 FILLER_101_15
*1202 FILLER_101_1505
*1203 FILLER_101_1511
*1204 FILLER_101_1513
*1205 FILLER_101_1525
*1206 FILLER_101_1537
*1207 FILLER_101_1549
*1208 FILLER_101_1561
*1209 FILLER_101_1567
*1210 FILLER_101_1569
*1211 FILLER_101_1581
*1212 FILLER_101_1593
*1213 FILLER_101_1605
*1214 FILLER_101_161
*1215 FILLER_101_1617
*1216 FILLER_101_1623
*1217 FILLER_101_1625
*1218 FILLER_101_1637
*1219 FILLER_101_1649
*1220 FILLER_101_1661
*1221 FILLER_101_167
*1222 FILLER_101_1673
*1223 FILLER_101_1679
*1224 FILLER_101_1681
*1225 FILLER_101_169
*1226 FILLER_101_1693
*1227 FILLER_101_1705
*1228 FILLER_101_1717
*1229 FILLER_101_1729
*1230 FILLER_101_1735
*1231 FILLER_101_1737
*1232 FILLER_101_1749
*1233 FILLER_101_1761
*1234 FILLER_101_1773
*1235 FILLER_101_1785
*1236 FILLER_101_1791
*1237 FILLER_101_1793
*1238 FILLER_101_1805
*1239 FILLER_101_181
*1240 FILLER_101_1817
*1241 FILLER_101_1829
*1242 FILLER_101_1841
*1243 FILLER_101_1847
*1244 FILLER_101_1849
*1245 FILLER_101_1861
*1246 FILLER_101_1873
*1247 FILLER_101_1885
*1248 FILLER_101_1897
*1249 FILLER_101_1903
*1250 FILLER_101_1905
*1251 FILLER_101_1917
*1252 FILLER_101_193
*1253 FILLER_101_205
*1254 FILLER_101_217
*1255 FILLER_101_223
*1256 FILLER_101_225
*1257 FILLER_101_237
*1258 FILLER_101_249
*1259 FILLER_101_261
*1260 FILLER_101_27
*1261 FILLER_101_273
*1262 FILLER_101_279
*1263 FILLER_101_281
*1264 FILLER_101_293
*1265 FILLER_101_3
*1266 FILLER_101_305
*1267 FILLER_101_317
*1268 FILLER_101_329
*1269 FILLER_101_335
*1270 FILLER_101_337
*1271 FILLER_101_349
*1272 FILLER_101_361
*1273 FILLER_101_373
*1274 FILLER_101_385
*1275 FILLER_101_39
*1276 FILLER_101_391
*1277 FILLER_101_393
*1278 FILLER_101_405
*1279 FILLER_101_417
*1280 FILLER_101_429
*1281 FILLER_101_441
*1282 FILLER_101_447
*1283 FILLER_101_449
*1284 FILLER_101_461
*1285 FILLER_101_473
*1286 FILLER_101_485
*1287 FILLER_101_497
*1288 FILLER_101_503
*1289 FILLER_101_505
*1290 FILLER_101_51
*1291 FILLER_101_517
*1292 FILLER_101_529
*1293 FILLER_101_541
*1294 FILLER_101_55
*1295 FILLER_101_553
*1296 FILLER_101_559
*1297 FILLER_101_561
*1298 FILLER_101_57
*1299 FILLER_101_573
*1300 FILLER_101_585
*1301 FILLER_101_597
*1302 FILLER_101_609
*1303 FILLER_101_615
*1304 FILLER_101_617
*1305 FILLER_101_629
*1306 FILLER_101_641
*1307 FILLER_101_653
*1308 FILLER_101_665
*1309 FILLER_101_671
*1310 FILLER_101_673
*1311 FILLER_101_685
*1312 FILLER_101_69
*1313 FILLER_101_697
*1314 FILLER_101_709
*1315 FILLER_101_721
*1316 FILLER_101_727
*1317 FILLER_101_729
*1318 FILLER_101_741
*1319 FILLER_101_753
*1320 FILLER_101_765
*1321 FILLER_101_777
*1322 FILLER_101_783
*1323 FILLER_101_785
*1324 FILLER_101_797
*1325 FILLER_101_809
*1326 FILLER_101_81
*1327 FILLER_101_821
*1328 FILLER_101_833
*1329 FILLER_101_839
*1330 FILLER_101_841
*1331 FILLER_101_853
*1332 FILLER_101_865
*1333 FILLER_101_877
*1334 FILLER_101_889
*1335 FILLER_101_895
*1336 FILLER_101_897
*1337 FILLER_101_909
*1338 FILLER_101_921
*1339 FILLER_101_93
*1340 FILLER_101_933
*1341 FILLER_101_945
*1342 FILLER_101_951
*1343 FILLER_101_953
*1344 FILLER_101_957
*1345 FILLER_101_967
*1346 FILLER_101_991
*1347 FILLER_102_1005
*1348 FILLER_102_1017
*1349 FILLER_102_1029
*1350 FILLER_102_1035
*1351 FILLER_102_1037
*1352 FILLER_102_1049
*1353 FILLER_102_1061
*1354 FILLER_102_1073
*1355 FILLER_102_1085
*1356 FILLER_102_109
*1357 FILLER_102_1091
*1358 FILLER_102_1093
*1359 FILLER_102_1105
*1360 FILLER_102_1117
*1361 FILLER_102_1129
*1362 FILLER_102_1141
*1363 FILLER_102_1147
*1364 FILLER_102_1149
*1365 FILLER_102_1161
*1366 FILLER_102_1173
*1367 FILLER_102_1185
*1368 FILLER_102_1197
*1369 FILLER_102_1203
*1370 FILLER_102_1205
*1371 FILLER_102_121
*1372 FILLER_102_1217
*1373 FILLER_102_1229
*1374 FILLER_102_1241
*1375 FILLER_102_1253
*1376 FILLER_102_1259
*1377 FILLER_102_1261
*1378 FILLER_102_1273
*1379 FILLER_102_1285
*1380 FILLER_102_1297
*1381 FILLER_102_1309
*1382 FILLER_102_1315
*1383 FILLER_102_1317
*1384 FILLER_102_1329
*1385 FILLER_102_133
*1386 FILLER_102_1341
*1387 FILLER_102_1353
*1388 FILLER_102_1365
*1389 FILLER_102_1371
*1390 FILLER_102_1373
*1391 FILLER_102_1385
*1392 FILLER_102_139
*1393 FILLER_102_1397
*1394 FILLER_102_1409
*1395 FILLER_102_141
*1396 FILLER_102_1421
*1397 FILLER_102_1427
*1398 FILLER_102_1429
*1399 FILLER_102_1441
*1400 FILLER_102_1453
*1401 FILLER_102_1465
*1402 FILLER_102_1477
*1403 FILLER_102_1483
*1404 FILLER_102_1485
*1405 FILLER_102_1497
*1406 FILLER_102_15
*1407 FILLER_102_1509
*1408 FILLER_102_1521
*1409 FILLER_102_153
*1410 FILLER_102_1533
*1411 FILLER_102_1539
*1412 FILLER_102_1541
*1413 FILLER_102_1553
*1414 FILLER_102_1565
*1415 FILLER_102_1577
*1416 FILLER_102_1589
*1417 FILLER_102_1595
*1418 FILLER_102_1597
*1419 FILLER_102_1609
*1420 FILLER_102_1621
*1421 FILLER_102_1633
*1422 FILLER_102_1645
*1423 FILLER_102_165
*1424 FILLER_102_1651
*1425 FILLER_102_1653
*1426 FILLER_102_1665
*1427 FILLER_102_1677
*1428 FILLER_102_1689
*1429 FILLER_102_1701
*1430 FILLER_102_1707
*1431 FILLER_102_1709
*1432 FILLER_102_1721
*1433 FILLER_102_1733
*1434 FILLER_102_1745
*1435 FILLER_102_1757
*1436 FILLER_102_1763
*1437 FILLER_102_1765
*1438 FILLER_102_177
*1439 FILLER_102_1777
*1440 FILLER_102_1789
*1441 FILLER_102_1801
*1442 FILLER_102_1813
*1443 FILLER_102_1819
*1444 FILLER_102_1821
*1445 FILLER_102_1833
*1446 FILLER_102_1845
*1447 FILLER_102_1857
*1448 FILLER_102_1869
*1449 FILLER_102_1875
*1450 FILLER_102_1877
*1451 FILLER_102_1889
*1452 FILLER_102_189
*1453 FILLER_102_1901
*1454 FILLER_102_1913
*1455 FILLER_102_1925
*1456 FILLER_102_195
*1457 FILLER_102_197
*1458 FILLER_102_209
*1459 FILLER_102_221
*1460 FILLER_102_233
*1461 FILLER_102_245
*1462 FILLER_102_251
*1463 FILLER_102_253
*1464 FILLER_102_265
*1465 FILLER_102_27
*1466 FILLER_102_277
*1467 FILLER_102_289
*1468 FILLER_102_29
*1469 FILLER_102_3
*1470 FILLER_102_301
*1471 FILLER_102_307
*1472 FILLER_102_309
*1473 FILLER_102_321
*1474 FILLER_102_333
*1475 FILLER_102_345
*1476 FILLER_102_357
*1477 FILLER_102_363
*1478 FILLER_102_365
*1479 FILLER_102_377
*1480 FILLER_102_389
*1481 FILLER_102_401
*1482 FILLER_102_41
*1483 FILLER_102_413
*1484 FILLER_102_419
*1485 FILLER_102_421
*1486 FILLER_102_433
*1487 FILLER_102_445
*1488 FILLER_102_457
*1489 FILLER_102_469
*1490 FILLER_102_475
*1491 FILLER_102_477
*1492 FILLER_102_489
*1493 FILLER_102_501
*1494 FILLER_102_513
*1495 FILLER_102_525
*1496 FILLER_102_53
*1497 FILLER_102_531
*1498 FILLER_102_533
*1499 FILLER_102_545
*1500 FILLER_102_557
*1501 FILLER_102_569
*1502 FILLER_102_581
*1503 FILLER_102_587
*1504 FILLER_102_589
*1505 FILLER_102_601
*1506 FILLER_102_613
*1507 FILLER_102_625
*1508 FILLER_102_637
*1509 FILLER_102_643
*1510 FILLER_102_645
*1511 FILLER_102_65
*1512 FILLER_102_657
*1513 FILLER_102_669
*1514 FILLER_102_681
*1515 FILLER_102_693
*1516 FILLER_102_699
*1517 FILLER_102_701
*1518 FILLER_102_713
*1519 FILLER_102_725
*1520 FILLER_102_737
*1521 FILLER_102_749
*1522 FILLER_102_755
*1523 FILLER_102_757
*1524 FILLER_102_769
*1525 FILLER_102_77
*1526 FILLER_102_781
*1527 FILLER_102_793
*1528 FILLER_102_805
*1529 FILLER_102_811
*1530 FILLER_102_813
*1531 FILLER_102_825
*1532 FILLER_102_83
*1533 FILLER_102_837
*1534 FILLER_102_849
*1535 FILLER_102_85
*1536 FILLER_102_861
*1537 FILLER_102_867
*1538 FILLER_102_869
*1539 FILLER_102_881
*1540 FILLER_102_893
*1541 FILLER_102_905
*1542 FILLER_102_917
*1543 FILLER_102_923
*1544 FILLER_102_925
*1545 FILLER_102_937
*1546 FILLER_102_949
*1547 FILLER_102_957
*1548 FILLER_102_966
*1549 FILLER_102_97
*1550 FILLER_102_972
*1551 FILLER_102_981
*1552 FILLER_102_993
*1553 FILLER_103_1009
*1554 FILLER_103_1021
*1555 FILLER_103_1033
*1556 FILLER_103_1045
*1557 FILLER_103_105
*1558 FILLER_103_1057
*1559 FILLER_103_1063
*1560 FILLER_103_1065
*1561 FILLER_103_1077
*1562 FILLER_103_1089
*1563 FILLER_103_1101
*1564 FILLER_103_111
*1565 FILLER_103_1113
*1566 FILLER_103_1119
*1567 FILLER_103_1121
*1568 FILLER_103_113
*1569 FILLER_103_1133
*1570 FILLER_103_1145
*1571 FILLER_103_1157
*1572 FILLER_103_1169
*1573 FILLER_103_1175
*1574 FILLER_103_1177
*1575 FILLER_103_1189
*1576 FILLER_103_1201
*1577 FILLER_103_1213
*1578 FILLER_103_1225
*1579 FILLER_103_1231
*1580 FILLER_103_1233
*1581 FILLER_103_1245
*1582 FILLER_103_125
*1583 FILLER_103_1257
*1584 FILLER_103_1269
*1585 FILLER_103_1281
*1586 FILLER_103_1287
*1587 FILLER_103_1289
*1588 FILLER_103_1301
*1589 FILLER_103_1313
*1590 FILLER_103_1325
*1591 FILLER_103_1337
*1592 FILLER_103_1343
*1593 FILLER_103_1345
*1594 FILLER_103_1357
*1595 FILLER_103_1369
*1596 FILLER_103_137
*1597 FILLER_103_1381
*1598 FILLER_103_1393
*1599 FILLER_103_1399
*1600 FILLER_103_1401
*1601 FILLER_103_1413
*1602 FILLER_103_1425
*1603 FILLER_103_1437
*1604 FILLER_103_1449
*1605 FILLER_103_1455
*1606 FILLER_103_1457